   96
Geometry Step: 153
    B     -5.07249518     14.30438169      1.73010005      2.73059593
    B      4.91066348     14.30438270      1.73010005      2.73059593
    B     -0.08091682     22.93601596      1.73010005      2.73065005
    B     19.98211918     11.41673007      1.73010005      2.73059593
    B      9.99896052     11.41673162      1.73010005      2.73059593
    B     14.99053860      2.78509709      1.73010005      2.73065005
    O     16.15251830      3.55067448      1.73010005      6.23185028
    C     13.79212034      0.55348636      1.73010005      4.03184394
    C     15.69070652      4.89398506      1.73010005      3.82004208
    C     16.41193528      6.07291389      1.73010005      4.12919085
    C     15.70083938      7.29263900      1.73010005      3.99531948
    O     18.73933524     12.04299081      1.73010005      6.23194768
    C     22.51316228     11.47665519      1.73010005      4.03184373
    C     17.80381638     10.97317641      1.73010005      3.82033553
    C     16.42185579     11.00989330      1.73010005      4.12895327
    C     15.71888630      9.78516690      1.73010005      3.99537449
    O     10.08450258     10.02786690      1.73010005      6.23185453
    C      8.64843855     13.56215406      1.73010005      4.03187079
    C     11.47901361      9.75939577      1.73010005      3.81982210
    C     12.14095652      8.54634465      1.73010005      4.12928336
    C     13.55260835      8.55391448      1.73010005      3.99526451
    O     -1.24289634     22.17043828      1.73010005      6.23185028
    C      1.11750124     25.16762669      1.73010005      4.03184394
    C     -0.78108422     20.82712781      1.73010005      3.82004208
    C     -1.50231266     19.64819879      1.73010005      4.12919085
    C     -0.79121644     18.42847386      1.73010005      3.99531948
    O     -3.82971109     13.67812125      1.73010005      6.23194767
    C     -7.60353819     14.24445640      1.73010005      4.03184373
    C     -2.89419248     14.74793589      1.73010005      3.82033553
    C     -1.51223188     14.71121937      1.73010005      4.12895326
    C     -0.80926271     15.93594596      1.73010005      3.99537449
    O      4.82512109     15.69324741      1.73010005      6.23185453
    C      6.26118555     12.15896043      1.73010005      4.03187079
    C      3.43060998     15.96171819      1.73010005      3.81982211
    C      2.76866675     17.17476914      1.73010005      4.12928336
    C      1.35701492     17.16719894      1.73010005      3.99526451
    O     -4.98695308     15.69324641      1.73010005      6.23185453
    C     -6.42301686     12.15895918      1.73010005      4.03187079
    C     -3.59244203     15.96171748      1.73010005      3.81982211
    C     -2.93049905     17.17476855      1.73010005      4.12928336
    C     -1.51884722     17.16719863      1.73010005      3.99526451
    O      1.08106288     22.17043855      1.73010005      6.23185028
    C     -1.27933515     25.16762665      1.73010005      4.03184394
    C      0.61925108     20.82712797      1.73010005      3.82004208
    C      1.34047980     19.64819911      1.73010005      4.12919085
    C      0.62938387     18.42847402      1.73010005      3.99531948
    O      3.66787951     13.67812202      1.73010005      6.23194767
    C      7.44170653     14.24445783      1.73010005      4.03184373
    C      2.73236069     14.74793646      1.73010005      3.82033553
    C      1.35040009     14.71121967      1.73010005      4.12895326
    C      0.64743067     15.93594611      1.73010005      3.99537449
    O     19.89657674     10.02786538      1.73010005      6.23185453
    C     21.33264096     13.56215242      1.73010005      4.03187079
    C     18.50206562      9.75939465      1.73010005      3.81982211
    C     17.84012232      8.54634375      1.73010005      4.12928336
    C     16.42847049      8.55391404      1.73010005      3.99526452
    O     13.82855909      3.55067477      1.73010005      6.23185028
    C     16.18895673      0.55348639      1.73010005      4.03184394
    C     14.29037122      4.89398525      1.73010005      3.82004209
    C     13.56914281      6.07291430      1.73010005      4.12919084
    C     14.28023907      7.29263921      1.73010005      3.99531949
    O     11.24174464     12.04299201      1.73010005      6.23194767
    C      7.46791756     11.47665666      1.73010005      4.03184373
    C     12.17726321     10.97317732      1.73010005      3.82033554
    C     13.55922381     11.00989376      1.73010005      4.12895326
    C     14.26219291      9.78516713      1.73010005      3.99537449
    C     21.28223550     12.15687599      1.73010005      4.09044916
    C      8.69884424     12.15687763      1.73010005      4.09044916
    C     14.99053853      1.28914221      1.73010005      4.09048700
    C     -6.37261141     13.56423561      1.73010005      4.09044916
    C      6.21077985     13.56423686      1.73010005      4.09044916
    C     -0.08091694     24.43197083      1.73010005      4.09048700
    H     12.83008041      1.09205789      1.73010005      0.94980920
    H     22.51830710     10.37411906      1.73010005      0.94983279
    H      9.59067585     14.13467322      1.73010005      0.94984333
    H      2.07954117     24.62905516      1.73010005      0.94980920
    H     -7.60868300     15.34699254      1.73010005      0.94983279
    H      5.31894824     11.58644128      1.73010005      0.94984333
    H     -5.48077945     11.58644020      1.73010005      0.94984333
    H     -2.24137507     24.62905512      1.73010005      0.94980920
    H      7.44685116     15.34699397      1.73010005      0.94983279
    H     20.39040355     14.13467139      1.73010005      0.94984333
    H     17.15099666      1.09205793      1.73010005      0.94980920
    H      7.46277294     10.37412052      1.73010005      0.94983279
    H     17.51496371      6.08694455      1.73010005      0.93134344
    H     15.85955529     11.95889725      1.73010005      0.93140651
    H     11.60284761      7.58337968      1.73010005      0.93135449
    H     -2.60534110     19.63416783      1.73010005      0.93134344
    H     -0.94993113     13.76221557      1.73010005      0.93140651
    H      3.30677540     18.13773426      1.73010005      0.93135449
    H     -3.46860789     18.13773357      1.73010005      0.93135449
    H      2.44350824     19.63416843      1.73010005      0.93134345
    H      0.78809953     13.76221575      1.73010005      0.93140651
    H     18.37823090      7.58337859      1.73010005      0.93135449
    H     12.46611438      6.08694528      1.73010005      0.93134345
    H     14.12152463     11.95889752      1.73010005      0.93140651
