   96
Geometry Step: 73
    B     -5.04970494     14.29044792      1.73010005      2.73213761
    B      4.88885598     14.29046430      1.73010005      2.73213802
    B     -0.08041261     22.89751734      1.73010005      2.73213761
    B     19.87004720     11.37911398      1.73010005      2.73213761
    B      9.93148628     11.37910028      1.73010005      2.73213802
    B     14.90075256      2.77204589      1.73010005      2.73213761
    O     16.06456653      3.53210200      1.73010005      6.23071453
    C     13.69791187      0.55272909      1.73010005      4.03166663
    C     15.60114166      4.87113818      1.73010005      3.81999314
    C     16.32477087      6.04597355      1.73010005      4.13024174
    C     15.61032455      7.26188628      1.73010005      3.99550279
    O     18.62990937     12.00697226      1.73010005      6.23071411
    C     22.39344276     11.44704935      1.73010005      4.03166676
    C     17.70198936     10.93611035      1.73010005      3.81999280
    C     16.32273814     10.97536506      1.73010005      4.13024195
    C     15.62695872      9.74867542      1.73010005      3.99550294
    O     10.00780889      9.99118035      1.73010005      6.23071398
    C      8.61094233     13.53045256      1.73010005      4.03166662
    C     11.39916077      9.72300554      1.73010005      3.81999288
    C     12.05478597      8.50890928      1.73010005      4.13024216
    C     13.46501990      8.51968767      1.73010005      3.99550293
    O     -1.24422640     22.13746094      1.73010005      6.23071453
    C      1.12242787     25.11683414      1.73010005      4.03166664
    C     -0.78080117     20.79842487      1.73010005      3.81999315
    C     -1.50443006     19.62358930      1.73010005      4.13024174
    C     -0.78998340     18.40767676      1.73010005      3.99550279
    O     -3.80956696     13.66258996      1.73010005      6.23071411
    C     -7.57310040     14.22251237      1.73010005      4.03166676
    C     -2.88164721     14.73345211      1.73010005      3.81999280
    C     -1.50239598     14.69419778      1.73010005      4.13024195
    C     -0.80661689     15.92088761      1.73010005      3.99550295
    O      4.81253302     15.67838421      1.73010005      6.23071398
    C      6.20940003     12.13911219      1.73010005      4.03166662
    C      3.42118106     15.94655865      1.73010005      3.81999289
    C      2.76555552     17.16065473      1.73010005      4.13024216
    C      1.35532159     17.14987596      1.73010005      3.99550294
    O     -4.97338403     15.67836844      1.73010005      6.23071453
    C     -6.37026931     12.13909892      1.73010005      4.03166664
    C     -3.58203224     15.94654882      1.73010005      3.81999314
    C     -2.92640956     17.16064778      1.73010005      4.13024174
    C     -1.51617508     17.14987547      1.73010005      3.99550279
    O      1.08339751     22.13745562      1.73010005      6.23071411
    C     -1.28327665     25.11680968      1.73010005      4.03166676
    C      0.61996390     20.79842236      1.73010005      3.81999279
    C      1.34358509     19.62358312      1.73010005      4.13024196
    C      0.62913040     18.40767566      1.73010005      3.99550294
    O      3.64872076     13.66260164      1.73010005      6.23071398
    C      7.41225369     14.22251579      1.73010005      4.03166662
    C      2.72079862     14.73346031      1.73010005      3.81999289
    C      1.34154781     14.69420025      1.73010005      4.13024216
    C      0.64576520     15.92088785      1.73010005      3.99550294
    O     19.79372593      9.99119348      1.73010005      6.23071452
    C     21.19061167     13.53046280      1.73010005      4.03166664
    C     18.40237406      9.72301346      1.73010005      3.81999315
    C     17.74675105      8.50891468      1.73010005      4.13024173
    C     16.33651658      8.51968737      1.73010005      3.99550279
    O     13.73694262      3.53210791      1.73010005      6.23071411
    C     16.10361639      0.55275356      1.73010005      4.03166676
    C     14.20037659      4.87114106      1.73010005      3.81999280
    C     13.47675573      6.04598050      1.73010005      4.13024195
    C     14.19121074      7.26188777      1.73010005      3.99550295
    O     11.17162166     12.00696262      1.73010005      6.23071398
    C      7.40808867     11.44704896      1.73010005      4.03166662
    C     12.09954353     10.93610370      1.73010005      3.81999289
    C     13.47879435     10.97536338      1.73010005      4.13024216
    C     14.17457663      9.74867559      1.73010005      3.99550294
    C     21.16402582     12.12618786      1.73010005      4.09134623
    C      8.63751041     12.12617772      1.73010005      4.09134650
    C     14.90075671      1.27789060      1.73010005      4.09134623
    C     -6.34368346     13.54337387      1.73010005      4.09134623
    C      6.18283195     13.54338703      1.73010005      4.09134650
    C     -0.08041697     24.39167264      1.73010005      4.09134623
    H     12.73959822      1.09742696      1.73010005      0.94923737
    H     22.40084998     10.34477630      1.73010005      0.94923738
    H      9.56182937     14.08801376      1.73010005      0.94923718
    H      2.08074152     24.57213628      1.73010005      0.94923736
    H     -7.58050761     15.32478542      1.73010005      0.94923738
    H      5.25851300     11.58155099      1.73010005      0.94923718
    H     -5.41939030     11.58152389      1.73010005      0.94923737
    H     -2.24157672     24.57208796      1.73010005      0.94923738
    H      7.41967237     15.32478872      1.73010005      0.94923718
    H     20.23973266     14.08803783      1.73010005      0.94923736
    H     17.06191645      1.09747527      1.73010005      0.94923738
    H      7.40066999     10.34477603      1.73010005      0.94923718
    H     17.42760802      6.05995321      1.73010005      0.93090208
    H     15.75920473     11.92345575      1.73010005      0.93090200
    H     11.51547779      7.54683218      1.73010005      0.93090192
    H     -2.60726721     19.60960933      1.73010005      0.93090208
    H     -0.93886230     13.74610725      1.73010005      0.93090200
    H      3.30486343     18.12273198      1.73010005      0.93090192
    H     -3.46572139     18.12272260      1.73010005      0.93090208
    H      2.44642241     19.60959422      1.73010005      0.93090200
    H      0.77801870     13.74610711      1.73010005      0.93090192
    H     18.28606262      7.54683971      1.73010005      0.93090208
    H     12.37391840      6.05996971      1.73010005      0.93090200
    H     14.04232372     11.92345636      1.73010005      0.93090192
