   96
Geometry Step: 190
    B     -5.05995202     14.43740071      1.73010005      2.73064355
    B      4.89908992     14.43740252      1.73010005      2.73064356
    B     -0.08043229     23.09021646      1.73010005      2.73053100
    B     19.88029684     11.43834701      1.73010005      2.73064355
    B      9.92125490     11.43834774      1.73010005      2.73064356
    B     14.90077491      2.78553253      1.73010005      2.73053100
    O     16.06256925      3.55165127      1.73010005      6.23195923
    C     13.70278305      0.55274671      1.73010005      4.03187103
    C     15.60089737      4.89538011      1.73010005      3.82011639
    C     16.32200089      6.07472018      1.73010005      4.12904151
    C     15.61156724      7.29491709      1.73010005      3.99531633
    O     18.63351700     12.05594824      1.73010005      6.23176632
    C     22.41409625     11.55308207      1.73010005      4.03187225
    C     17.70679747     10.98075607      1.73010005      3.81953069
    C     16.32565112     11.01243399      1.73010005      4.12951751
    C     15.62855157      9.78517538      1.73010005      3.99520665
    O      9.99683663     10.04872472      1.73010005      6.23194702
    C      8.62077359     13.60821885      1.73010005      4.03181786
    C     11.39081500      9.77022054      1.73010005      3.82055370
    C     12.04844854      8.55404994      1.73010005      4.12885514
    C     13.46078866      8.55599065      1.73010005      3.99543229
    O     -1.24222645     22.32409745      1.73010005      6.23195923
    C      1.11755938     25.32300229      1.73010005      4.03187103
    C     -0.78055424     20.98036871      1.73010005      3.82011639
    C     -1.50165746     19.80102845      1.73010005      4.12904151
    C     -0.79122348     18.58083172      1.73010005      3.99531634
    O     -3.81317204     13.81979979      1.73010005      6.23176632
    C     -7.59375134     14.32266548      1.73010005      4.03187225
    C     -2.88645276     14.89499219      1.73010005      3.81953070
    C     -1.50530640     14.86331463      1.73010005      4.12951750
    C     -0.80820718     16.09057343      1.73010005      3.99520665
    O      4.82350785     15.82702552      1.73010005      6.23194702
    C      6.19957132     12.26753158      1.73010005      4.03181786
    C      3.42952940     16.10552937      1.73010005      3.82055371
    C      2.77189555     17.32169980      1.73010005      4.12885513
    C      1.35955542     17.31975871      1.73010005      3.99543229
    O     -4.98437035     15.82702376      1.73010005      6.23194704
    C     -6.36043389     12.26752976      1.73010005      4.03181786
    C     -3.59039199     16.10552809      1.73010005      3.82055370
    C     -2.93275860     17.32169875      1.73010005      4.12885513
    C     -1.52041848     17.31975824      1.73010005      3.99543229
    O      1.08136205     22.32409774      1.73010005      6.23195922
    C     -1.27842417     25.32300222      1.73010005      4.03187103
    C      0.61969019     20.98036890      1.73010005      3.82011638
    C      1.34079369     19.80102883      1.73010005      4.12904152
    C      0.63036002     18.58083194      1.73010005      3.99531634
    O      3.65231015     13.81980117      1.73010005      6.23176632
    C      7.43288943     14.32266695      1.73010005      4.03187225
    C      2.72559058     14.89499326      1.73010005      3.81953069
    C      1.34444421     14.86331514      1.73010005      4.12951752
    C      0.64734454     16.09057369      1.73010005      3.99520664
    O     19.80471483     10.04872398      1.73010005      6.23194704
    C     21.18077880     13.60821781      1.73010005      4.03181786
    C     18.41073640      9.77022000      1.73010005      3.82055371
    C     17.75310268      8.55404951      1.73010005      4.12885513
    C     16.34076256      8.55599038      1.73010005      3.99543229
    O     13.73898075      3.55165154      1.73010005      6.23195922
    C     16.09876660      0.55274677      1.73010005      4.03187104
    C     14.20065294      4.89538027      1.73010005      3.82011638
    C     13.47954974      6.07472053      1.73010005      4.12904151
    C     14.18998374      7.29491724      1.73010005      3.99531634
    O     11.16803481     12.05594879      1.73010005      6.23176632
    C      7.38745548     11.55308348      1.73010005      4.03187225
    C     12.09475413     10.98075646      1.73010005      3.81953070
    C     13.47590050     11.01243422      1.73010005      4.12951752
    C     14.17299985      9.78517549      1.73010005      3.99520664
    C     21.16672738     12.20188872      1.73010005      4.09048094
    C      8.63482451     12.20188978      1.73010005      4.09048094
    C     14.90077481      1.28940908      1.73010005      4.09040698
    C     -6.34638247     13.67385884      1.73010005      4.09048094
    C      6.18552040     13.67386065      1.73010005      4.09048094
    C     -0.08043238     24.58633992      1.73010005      4.09040698
    H     12.74038421      1.09073078      1.73010005      0.94987174
    H     22.44814080     10.45108593      1.73010005      0.94982059
    H      9.57799374     14.15533539      1.73010005      0.94980038
    H      2.07995822     24.78501821      1.73010005      0.94987174
    H     -7.62779589     15.42466162      1.73010005      0.94982059
    H      5.24235117     11.72041505      1.73010005      0.94980038
    H     -5.40321395     11.72041286      1.73010005      0.94980038
    H     -2.24082297     24.78501807      1.73010005      0.94987174
    H      7.46693437     15.42466308      1.73010005      0.94982059
    H     20.22355886     14.15533470      1.73010005      0.94980038
    H     17.06116540      1.09073092      1.73010005      0.94987174
    H      7.35341055     10.45108735      1.73010005      0.94982059
    H     17.42498446      6.08861055      1.73010005      0.93141832
    H     15.75943016     11.95918776      1.73010005      0.93129205
    H     11.50649098      7.59327873      1.73010005      0.93139950
    H     -2.60464102     19.78713779      1.73010005      0.93141832
    H     -0.93908520     13.91656101      1.73010005      0.93129205
    H      3.31385285     18.28247115      1.73010005      0.93139950
    H     -3.47471633     18.28246986      1.73010005      0.93139951
    H      2.44377726     19.78713838      1.73010005      0.93141832
    H      0.77822341     13.91656130      1.73010005      0.93129204
    H     18.29506016      7.59327825      1.73010005      0.93139951
    H     12.37656618      6.08861127      1.73010005      0.93141832
    H     14.04212156     11.95918791      1.73010005      0.93129204
