   96
Geometry Step: 145
    B     -5.07685726     14.25992825      1.73010005      2.73056658
    B      4.91470242     14.25992896      1.73010005      2.73056655
    B     -0.08107829     22.88457098      1.73010005      2.73068436
    B     20.01624099     11.40963820      1.73010005      2.73056658
    B     10.02468131     11.40964004      1.73010005      2.73056655
    B     15.02045980      2.78499675      1.73010005      2.73068436
    O     16.18248740      3.55042677      1.73010005      6.23181992
    C     13.82191441      0.55373593      1.73010005      4.03183579
    C     15.72063969      4.89361659      1.73010005      3.82001617
    C     16.44190335      6.07242600      1.73010005      4.12923736
    C     15.73060134      7.29201356      1.73010005      3.99531900
    O     18.77477889     12.03876299      1.73010005      6.23201907
    C     22.54618668     11.45141729      1.73010005      4.03183566
    C     17.83628309     10.97076203      1.73010005      3.82060711
    C     16.45403906     11.00916437      1.73010005      4.12875564
    C     15.74902415      9.78532631      1.73010005      3.99542929
    O     10.11361034     10.02103462      1.73010005      6.23183302
    C      8.65747822     13.54665286      1.73010005      4.03189056
    C     11.50830880      9.75590343      1.73010005      3.81957738
    C     12.17175632      8.54392013      1.73010005      4.12942017
    C     13.58319004      8.55336847      1.73010005      3.99520703
    O     -1.24310571     22.11914067      1.73010005      6.23181992
    C      1.11746690     25.11583180      1.73010005      4.03183579
    C     -0.78125765     20.77595096      1.73010005      3.82001617
    C     -1.50252101     19.59714136      1.73010005      4.12923736
    C     -0.79121868     18.37755399      1.73010005      3.99531900
    O     -3.83539501     13.63080376      1.73010005      6.23201907
    C     -7.60680286     14.21814899      1.73010005      4.03183567
    C     -2.89689947     14.69880496      1.73010005      3.82060711
    C     -1.51465542     14.66040298      1.73010005      4.12875564
    C     -0.80964084     15.88424122      1.73010005      3.99542929
    O      4.82577306     15.64853437      1.73010005      6.23183302
    C      6.28190560     12.12291632      1.73010005      4.03189056
    C      3.43107452     15.91366521      1.73010005      3.81957738
    C      2.76762667     17.12564834      1.73010005      4.12942017
    C      1.35619295     17.11619963      1.73010005      3.99520703
    O     -4.98792833     15.64853358      1.73010005      6.23183297
    C     -6.44405983     12.12291521      1.73010005      4.03189057
    C     -3.59322985     15.91366469      1.73010005      3.81957740
    C     -2.92978223     17.12564793      1.73010005      4.12942017
    C     -1.51834851     17.11619942      1.73010005      3.99520703
    O      1.08094926     22.11914087      1.73010005      6.23181992
    C     -1.27962377     25.11583169      1.73010005      4.03183579
    C      0.61910143     20.77595108      1.73010005      3.82001618
    C      1.34036498     19.59714159      1.73010005      4.12923735
    C      0.62906288     18.37755409      1.73010005      3.99531900
    O      3.67324012     13.63080432      1.73010005      6.23201911
    C      7.44464798     14.21815039      1.73010005      4.03183565
    C      2.73474436     14.69880536      1.73010005      3.82060710
    C      1.35250030     14.66040318      1.73010005      4.12875564
    C      0.64748551     15.88424131      1.73010005      3.99542930
    O     19.92731172     10.02103289      1.73010005      6.23183297
    C     21.38344366     13.54665107      1.73010005      4.03189057
    C     18.53261317      9.75590213      1.73010005      3.81957740
    C     17.86916523      8.54391906      1.73010005      4.12942017
    C     16.45773151      8.55336794      1.73010005      3.99520703
    O     13.85843244      3.55042715      1.73010005      6.23181991
    C     16.21900508      0.55373603      1.73010005      4.03183579
    C     14.32028060      4.89361683      1.73010005      3.82001618
    C     13.59901736      6.07242651      1.73010005      4.12923735
    C     14.31031979      7.29201382      1.73010005      3.99531900
    O     11.26614376     12.03876439      1.73010005      6.23201911
    C      7.49473584     11.45141879      1.73010005      4.03183565
    C     12.20463926     10.97076311      1.73010005      3.82060710
    C     13.58688333     11.00916493      1.73010005      4.12875564
    C     14.29189781      9.78532661      1.73010005      3.99542930
    C     21.32084647     12.14192199      1.73010005      4.09043013
    C      8.72007603     12.14192371      1.73010005      4.09043011
    C     15.02045971      1.28909133      1.73010005      4.09050881
    C     -6.38146265     13.52764430      1.73010005      4.09043013
    C      6.21930779     13.52764547      1.73010005      4.09043011
    C     -0.08107840     24.38047640      1.73010005      4.09050881
    H     12.85998015      1.09247235      1.73010005      0.94978979
    H     22.54176200     10.34886808      1.73010005      0.94984183
    H      9.59455046     14.12759695      1.73010005      0.94986183
    H      2.07940116     24.57709538      1.73010005      0.94978979
    H     -7.60237818     15.32069820      1.73010005      0.94984183
    H      5.34483336     11.54197223      1.73010005      0.94986183
    H     -5.50698737     11.54197147      1.73010005      0.94986183
    H     -2.24155798     24.57709518      1.73010005      0.94978979
    H      7.44022300     15.32069959      1.73010005      0.94984183
    H     20.44637119     14.12759481      1.73010005      0.94986183
    H     17.18093929      1.09247255      1.73010005      0.94978979
    H      7.49916083     10.34886958      1.73010005      0.94984182
    H     17.54494571      6.08650155      1.73010005      0.93131911
    H     15.89309476     11.95893848      1.73010005      0.93144800
    H     11.63493271      7.58022516      1.73010005      0.93134301
    H     -2.60556336     19.58306551      1.73010005      0.93131911
    H     -0.95371087     13.71062902      1.73010005      0.93144800
    H      3.30445003     18.08934346      1.73010005      0.93134301
    H     -3.46660576     18.08934295      1.73010005      0.93134300
    H      2.44340733     19.58306593      1.73010005      0.93131911
    H      0.79155586     13.71062914      1.73010005      0.93144800
    H     18.40598850      7.58022389      1.73010005      0.93134300
    H     12.49597502      6.08650246      1.73010005      0.93131911
    H     14.14782802     11.95893882      1.73010005      0.93144800
